# File generated by Flopy version 3.3.6 on 12/07/2022 at 20:40:00.
BEGIN options
END options

BEGIN continuous  FILEOUT  ex-gwf-advtidal.ghb.obs.csv
  ghb_2_6_10  ghb  2 6 10
  ghb_3_6_10  ghb  3 6 10
  estuary2  ghb  ESTUARY-L2
  estuary3  ghb  ESTUARY-L3
END continuous  FILEOUT  ex-gwf-advtidal.ghb.obs.csv

